#RADIOSS STARTER
#--------------------------------------------------------------------------------------------------|
#- RADIOSS DECK WRITTEN BY HyperCrash
#HyperCrash 10.0 SA2 (64 bits) 
#Tue Jul 20 10:53:16 2010
#-
#-
#- DATE	Tue Jul 20 10:53:16 2010
#--------------------------------------------------------------------------------------------------|
#---1----|----2----|----3----|----4----|----5----|----6----|----7----|----8----|----9----|---10----|
/BEGIN
CUBE                                                                            
       100         0
                  kg                   m                   s
                  kg                   m                   s
#---1----|----2----|----3----|----4----|----5----|----6----|----7----|----8----|----9----|---10----|
#-  1. CONTROL CARDS:
#---1----|----2----|----3----|----4----|----5----|----6----|----7----|----8----|----9----|---10----|
/TITLE
UNKNOW
/SPMD
#   DOMDEC      SPMD              DECMOT
         0         0                   0
/IOFLAG
#     IPRI     IRTYP     IGTYP     IOUTP    IOUTYY   IROOTYY                                 IRTYP_R
         0         0         0         0         0         0                                       0
/ANALY
#    N2D3D     INTEG   IPARITH      ISUB
         0         0         0         0
/DEF_SOLID
#  I_SOLID    ISMSTR             ISTRAIN                                  IFRAME
         0         0                   0                                       0
/DEF_SHELL
#   ISHELL    ISMSTR    ITHICK     IPLAS   ISTRAIN                        I_SH3N
         0         0         0         0         0                             1
/SHFRA/V4
#---1----|----2----|----3----|----4----|----5----|----6----|----7----|----8----|----9----|---10----|
#-  2. MATERIALS:
#---1----|----2----|----3----|----4----|----5----|----6----|----7----|----8----|----9----|---10----|
/MAT/PLAS_JOHNS/1
elasto_plastic material
#        Init. dens.          Ref. dens.
                7800                7800
#                  E                  Nu
        210000000000                  .3
#                  a                   b                   n             Eps_max              sigmax
           200000000           400000000                  .5                   0                   0
#                  c                EPS0       Icc   Fsmooth               F_CUT
                   0                   0         0         0                   0
#                  m              T_melt               rhoCp                 T_i
                   0                   0                   0                   0
#---1----|----2----|----3----|----4----|----5----|----6----|----7----|----8----|----9----|---10----|
/MAT/ELAST/3
ice
#        Init. dens.          Ref. dens.
                 916                 916
#                  E                  nu
         10000000000                  .3
#---1----|----2----|----3----|----4----|----5----|----6----|----7----|----8----|----9----|---10----|
#-  3. NODES:
#---1----|----2----|----3----|----4----|----5----|----6----|----7----|----8----|----9----|---10----|
/NODE
         1        -.0125765781                 .05          .236846191
         2                   0                 .05          .209609634
         3         -.466519073                 .05         .0272365513
         4         -.453942505                 .05                   0
         5        -.0504051172                 .05          .219378718
         6        -.0882336562                 .05          .201911244
         7         -.126062199                 .05          .184443775
         8         -.163890742                 .05          .166976305
         9         -.201719289                 .05          .149508836
        10         -.239547836                 .05          .132041367
        11         -.277376376                 .05            .1145739
        12         -.315204916                 .05         .0971064343
        13         -.353033463                 .05         .0796389599
        14         -.390862009                 .05         .0621714855
        15         -.428690541                 .05         .0447040184
        16        -.0378285431                 .05          .192142165
        17        -.0756570862                 .05          .174674696
        18         -.113485629                 .05          .157207226
        19         -.151314172                 .05          .139739757
        20         -.189142712                 .05          .122272287
# ... 525 like lines cut
#---1----|----2----|----3----|----4----|----5----|----6----|----7----|----8----|----9----|---10----|
#-  4. BOUNDARY CONDITIONS:
#---1----|----2----|----3----|----4----|----5----|----6----|----7----|----8----|----9----|---10----|
/BCS/2
bcs_ground
#   trarot   Skew_id   Gnod_id
   111 111         0         8
/GRNOD/GRNOD/8
New GRNOD 8
        10
/GRNOD/GRNOD/10
New GRNOD 8 _nodes_subgroup_
         9
/GRNOD/NODE/9
New GRNOD 8 _nodes_subsubgroup_
         2         4        16        17        18        19        20        21        22        23
        24        25        26        29        30        42        43        44        45        46
        47        48        49        50        51        52       204       205       207       209
       211       213       215       217       219       221       223       225       227       228
       229       231       233       235       237       239       241       243       245       247
       249       251       252       255       257       259       261       263       265       267
       269       271       273
#---1----|----2----|----3----|----4----|----5----|----6----|----7----|----8----|----9----|---10----|
/BCS/4
bcs_cube
#   trarot   Skew_id   Gnod_id
   010 101         0        24
/GRNOD/GRNOD/24
New GRNOD 24
        26
/GRNOD/GRNOD/26
New GRNOD 24 _nodes_subgroup_
        25
/GRNOD/NODE/25
New GRNOD 24 _nodes_subsubgroup_
   1000135   1000136   1000137   1000138   1000139   1000140   1000141   1000142   1000143   1000144
   1000145   1000147   1000148   1000149   1000150   1000151   1000152   1000153   1000154   1000155
   1000156   1000157   1000158   1000159   1000160   1000161
#---1----|----2----|----3----|----4----|----5----|----6----|----7----|----8----|----9----|---10----|
/BCS/6
bcs_ground2
#   trarot   Skew_id   Gnod_id
   111 111         0        54
/GRNOD/GRNOD/54
New GRNOD 54
        56
/GRNOD/GRNOD/56
New GRNOD 54 _nodes_subgroup_
        55
/GRNOD/NODE/55
New GRNOD 54 _nodes_subsubgroup_
   1000208   1000209   1000220   1000221   1000222   1000223   1000224   1000225   1000226   1000227
   1000228   1000231   1000232   1000243   1000244   1000245   1000247   1000250   1000263   1000290
   1000291   1000292   1000293   1000294   1000295   1000296   1000297   1000298   1000299   1000300
   1000301   1000302   1000303   1000304   1000305   1000306   1000307   1000308   1000309   1000310
   1000311   1000312   1000313   1000314   1000315   1000316   1000317   1000318   1000319   1000320
   1000321   1000322   1000323   1000324   1000325   1000326   1000327   1000328   1000329   1000330
   1000331   1000332   1000333
#---1----|----2----|----3----|----4----|----5----|----6----|----7----|----8----|----9----|---10----|
/BCS/7
bcs_bac
#   trarot   Skew_id   Gnod_id
   111 111         0        61
/GRNOD/GRNOD/61
New GRNOD 61
        63
/GRNOD/GRNOD/63
New GRNOD 61 _nodes_subgroup_
        62
/GRNOD/NODE/62
New GRNOD 61 _nodes_subsubgroup_
   1000334
#---1----|----2----|----3----|----4----|----5----|----6----|----7----|----8----|----9----|---10----|
#-  5. PARTS:
#---1----|----2----|----3----|----4----|----5----|----6----|----7----|----8----|----9----|---10----|
/PART/1
BAC
         2         1         0
#---1----|----2----|----3----|----4----|----5----|----6----|----7----|----8----|----9----|---10----|
# SHELL elements of /PART/1/BAC:
#---1----|----2----|----3----|----4----|----5----|----6----|----7----|----8----|----9----|---10----|
/SHELL/1
         1   1000166   1000170   1000171   1000167                                                 0
         2   1000170   1000165   1000169   1000171                                                 0
         3   1000169   1000164   1000168   1000171                                                 0
         4   1000168   1000163   1000167   1000171                                                 0
         5   1000176   1000174   1000179   1000180                                                 0
         6   1000180   1000179   1000175   1000178                                                 0
         7   1000172   1000176   1000180   1000177                                                 0
         8   1000177   1000180   1000178   1000173                                                 0
         9   1000185   1000183   1000188   1000189                                                 0
        10   1000189   1000188   1000184   1000187                                                 0
        11   1000181   1000185   1000189   1000186                                                 0
        12   1000186   1000189   1000187   1000182                                                 0
        13   1000194   1000192   1000197   1000198                                                 0
        14   1000198   1000197   1000193   1000196                                                 0
        15   1000190   1000194   1000198   1000195                                                 0
        16   1000195   1000198   1000196   1000191                                                 0
        17   1000203   1000201   1000206   1000207                                                 0
        18   1000207   1000206   1000202   1000205                                                 0
        19   1000199   1000203   1000207   1000204                                                 0
        20   1000204   1000207   1000205   1000200                                                 0
#---1----|----2----|----3----|----4----|----5----|----6----|----7----|----8----|----9----|---10----|
/PART/2
GROUND 1
         3         1         0
#---1----|----2----|----3----|----4----|----5----|----6----|----7----|----8----|----9----|---10----|
# SHEL16 elements of /PART/2/GROUND 1:
#---1----|----2----|----3----|----4----|----5----|----6----|----7----|----8----|----9----|---10----|
/SHEL16/2
      1001        16        42        30         2         5        31        28         1
       273       229       228       205
       198       154       153       130
      1002        17        43        42        16         6        32        31         5
       271       231       273       207
       196       156       198       132
      1003        18        44        43        17         7        33        32         6
       269       233       271       209
       194       158       196       134
      1004        19        45        44        18         8        34        33         7
       267       235       269       211
       192       160       194       136
      1005        20        46        45        19         9        35        34         8
       265       237       267       213
       190       162       192       138
      1006        21        47        46        20        10        36        35         9
       263       239       265       215
       188       164       190       140
      1007        22        48        47        21        11        37        36        10
       261       241       263       217
# ... 16 like lines cut
#---1----|----2----|----3----|----4----|----5----|----6----|----7----|----8----|----9----|---10----|
/PART/4
CUBE
         1         3         0
#---1----|----2----|----3----|----4----|----5----|----6----|----7----|----8----|----9----|---10----|
# BRICK elements of /PART/4/CUBE:
#---1----|----2----|----3----|----4----|----5----|----6----|----7----|----8----|----9----|---10----|
/BRICK/4
         5   1000142   1000137   1000139   1000143   1000145   1000144   1000147   1000146
         6   1000138   1000142   1000143   1000141   1000148   1000145   1000146   1000149
         7   1000136   1000141   1000143   1000140   1000150   1000149   1000146   1000151
         8   1000135   1000140   1000143   1000139   1000152   1000151   1000146   1000147
         9   1000145   1000144   1000147   1000146   1000154   1000153   1000156   1000155
        10   1000148   1000145   1000146   1000149   1000157   1000154   1000155   1000158
        11   1000150   1000149   1000146   1000151   1000159   1000158   1000155   1000160
        12   1000152   1000151   1000146   1000147   1000161   1000160   1000155   1000156
#---1----|----2----|----3----|----4----|----5----|----6----|----7----|----8----|----9----|---10----|
/PART/5
GROUND 2
         3         1         0
#---1----|----2----|----3----|----4----|----5----|----6----|----7----|----8----|----9----|---10----|
# SHEL16 elements of /PART/5/GROUND 2:
#---1----|----2----|----3----|----4----|----5----|----6----|----7----|----8----|----9----|---10----|
/SHEL16/5
      1013   1000227   1000315   1000316   1000228   1000210   1000246   1000241   1000211
   1000303   1000294   1000305   1000330
   1000274   1000276   1000273   1000289
      1014   1000228   1000316   1000317   1000225   1000211   1000241   1000242   1000212
   1000305   1000295   1000306   1000331
   1000273   1000277   1000272   1000252
      1015   1000220   1000243   1000244   1000208   1000218   1000236   1000233   1000219
   1000312   1000302   1000313   1000325
   1000266   1000284   1000265   1000259
      1016   1000209   1000245   1000231   1000247   1000249   1000234   1000229   1000248
   1000314   1000326   1000328   1000324
   1000264   1000286   1000287   1000261
      1017   1000221   1000321   1000322   1000222   1000216   1000238   1000235   1000217
   1000310   1000300   1000311   1000291
   1000268   1000282   1000267   1000257
      1018   1000222   1000322   1000243   1000220   1000217   1000235   1000236   1000218
   1000311   1000301   1000312   1000290
   1000267   1000283   1000266   1000258
      1019   1000208   1000244   1000245   1000209   1000219   1000233   1000234   1000249
   1000313   1000327   1000314   1000323
# ... 16 like lines cut
#---1----|----2----|----3----|----4----|----5----|----6----|----7----|----8----|----9----|---10----|
#-  6. GEOMETRICAL SETS:
#---1----|----2----|----3----|----4----|----5----|----6----|----7----|----8----|----9----|---10----|
/PROP/SOLID/1
general solid
#   Isolid    Ismstr               Icpre               Inpts      Irot    Iframe                  dn
         0         0                   0                   0         0         0                   0
#                q_a                 q_b                   h
                   0                   0                   0
#             dt_min
                   0
#---1----|----2----|----3----|----4----|----5----|----6----|----7----|----8----|----9----|---10----|
/PROP/SHELL/2
shell
#   Ishell    Ismstr     Ish3n
         0         0         0
#                 hm                  hf                  hr                  dm                  dn
                   0                   0                   0                   0                   0
#        N   Istrain               Thick              Ashear              Ithick     Iplas
         0         0                  .1                   0                   0         0
#---1----|----2----|----3----|----4----|----5----|----6----|----7----|----8----|----9----|---10----|
/PROP/TYPE20/3
thick_shell
#   Isolid    Ismstr               Icpre     Icstr     Inpts      Iint                            dn
        16         0                   0         0       232         0                             0
#                q_a                 q_b                   h
                   0                   0                   0
#             dt_min
                   0
#---1----|----2----|----3----|----4----|----5----|----6----|----7----|----8----|----9----|---10----|
#-  7. FUNCTIONS:
#---1----|----2----|----3----|----4----|----5----|----6----|----7----|----8----|----9----|---10----|
/FUNCT/1
function 1
#                  X                   Y
                   0                   1                                                            
               10000                   1                                                            
#---1----|----2----|----3----|----4----|----5----|----6----|----7----|----8----|----9----|---10----|
#-  8. GRAVITIES:
#---1----|----2----|----3----|----4----|----5----|----6----|----7----|----8----|----9----|---10----|
/GRAV/2
gravity
#   Ifunct       DIR     Iskew   Isensor   Gnod_id                       Scale_x             Scale_y
         1         Z         0         0        39                             1               -9.81
/GRNOD/GRNOD/39
New GRNOD 39
        41
/GRNOD/GRNOD/41
New GRNOD 39 _nodes_subgroup_
        40
/GRNOD/NODE/40
New GRNOD 39 _nodes_subsubgroup_
   1000135   1000136   1000137   1000138   1000139   1000140   1000141   1000142   1000143   1000144
   1000145   1000147   1000148   1000149   1000150   1000151   1000152   1000153   1000154   1000155
   1000156   1000157   1000158   1000159   1000160   1000161
#---1----|----2----|----3----|----4----|----5----|----6----|----7----|----8----|----9----|---10----|
#-  9. INTERFACES:
#---1----|----2----|----3----|----4----|----5----|----6----|----7----|----8----|----9----|---10----|
/INTER/LAGMUL/TYPE16/1
interface 16
#    Slave    Master
        14         1
#                        Itied
                             1
/INTER/LAGMUL/TYPE16/4
interface 16
#    Slave    Master
        51        14
#                        Itied
                             0
/INTER/TYPE7/3
interface 7
#  Slav_id   Mast_id      Istf      Ithe      Igap     Multi      Ibag      Idel     Icurv      Iadm
        48        10         0         0         0         0         0         0         0         0
#          GAP_SCALE             GAP_MAX
                   0                   0
#              STMIN               STMAX
                   0                   0
#              STFAC                FRIC             GAP_MIN              Tstart               Tstop
                   0                   0                   0                   0                   0
#     I_BC                        INACTI               VIS_S               VIS_F              BUMULT
       000                             0                   0                   0                   0
#    Ifric    Ifiltr               Xfreq     Iform
         0         0                   0         0
/GRNOD/GRNOD/48
New GRNOD 48
        50
/GRNOD/GRNOD/50
New GRNOD 48 _nodes_subgroup_
        49
/GRNOD/NODE/49
New GRNOD 48 _nodes_subsubgroup_
   1000135   1000136   1000137   1000138   1000139   1000140   1000141   1000142   1000143   1000144
   1000145   1000147   1000148   1000149   1000150   1000151   1000152   1000153   1000154   1000155
   1000156   1000157   1000158   1000159   1000160   1000161
/SURF/SURF/10
New SURF 10
        11
/SURF/SURF/11
New SURF 10 _parts_subgroup_
        12
/SURF/PART/12
New SURF 10 _parts_subsubgroup_
         1
#---1----|----2----|----3----|----4----|----5----|----6----|----7----|----8----|----9----|---10----|
#- 10. RIGID BODIES:
#---1----|----2----|----3----|----4----|----5----|----6----|----7----|----8----|----9----|---10----|
/RBODY/1
rigid body
#     RBID     ISENS     NSKEW    ISPHER                MASS   Gnod_id     IKREM      ICOG   Surf_id
   1000334         0         0         0                   0        57         0         0         0
#                Jxx                 Jyy                 Jzz
                   0                   0                   0
#                Jxy                 Jyz                 Jxz
                   0                   0                   0
/GRNOD/GRNOD/57
New GRNOD 57
        59
/GRNOD/GRNOD/59
New GRNOD 57 _nodes_subgroup_
        58
/GRNOD/NODE/58
New GRNOD 57 _nodes_subsubgroup_
   1000163   1000164   1000165   1000166   1000167   1000168   1000169   1000170   1000171   1000172
   1000173   1000174   1000175   1000176   1000177   1000178   1000179   1000180   1000181   1000182
   1000183   1000184   1000185   1000186   1000187   1000188   1000189   1000190   1000191   1000192
   1000193   1000194   1000195   1000196   1000197   1000198   1000199   1000200   1000201   1000202
   1000203   1000204   1000205   1000206   1000207
#---1----|----2----|----3----|----4----|----5----|----6----|----7----|----8----|----9----|---10----|
#- 11. SOLID GROUPS:
#---1----|----2----|----3----|----4----|----5----|----6----|----7----|----8----|----9----|---10----|
/GRBRIC/GRBRIC/1
New GRBRIC 1
         2
#---1----|----2----|----3----|----4----|----5----|----6----|----7----|----8----|----9----|---10----|
/GRBRIC/GRBRIC/2
New GRBRIC 1 _parts_subgroup_
         3
#---1----|----2----|----3----|----4----|----5----|----6----|----7----|----8----|----9----|---10----|
/GRBRIC/PART/3
New GRBRIC 1 _parts_subsubgroup_
         2
#---1----|----2----|----3----|----4----|----5----|----6----|----7----|----8----|----9----|---10----|
/GRBRIC/GRBRIC/11
New GRBRIC 1
        12
#---1----|----2----|----3----|----4----|----5----|----6----|----7----|----8----|----9----|---10----|
/GRBRIC/GRBRIC/12
New GRBRIC 1 _parts_subgroup_
        13
#---1----|----2----|----3----|----4----|----5----|----6----|----7----|----8----|----9----|---10----|
/GRBRIC/PART/13
New GRBRIC 1 _parts_subsubgroup_
         2
#---1----|----2----|----3----|----4----|----5----|----6----|----7----|----8----|----9----|---10----|
/GRBRIC/GRBRIC/14
New GRBRIC 14
        15
#---1----|----2----|----3----|----4----|----5----|----6----|----7----|----8----|----9----|---10----|
/GRBRIC/GRBRIC/15
New GRBRIC 14 _parts_subgroup_
        16
#---1----|----2----|----3----|----4----|----5----|----6----|----7----|----8----|----9----|---10----|
/GRBRIC/PART/16
New GRBRIC 14 _parts_subsubgroup_
         5
#---1----|----2----|----3----|----4----|----5----|----6----|----7----|----8----|----9----|---10----|
#- 12. NODE GROUPS:
#---1----|----2----|----3----|----4----|----5----|----6----|----7----|----8----|----9----|---10----|
/GRNOD/GRNOD/14
New GRNOD 14
        15
#---1----|----2----|----3----|----4----|----5----|----6----|----7----|----8----|----9----|---10----|
/GRNOD/GRNOD/15
New GRNOD 14 _parts_subgroup_
        16
#---1----|----2----|----3----|----4----|----5----|----6----|----7----|----8----|----9----|---10----|
/GRNOD/PART/16
New GRNOD 14 _parts_subsubgroup_
         4
#---1----|----2----|----3----|----4----|----5----|----6----|----7----|----8----|----9----|---10----|
/GRNOD/GRNOD/20
New GRNOD 20
        22
#---1----|----2----|----3----|----4----|----5----|----6----|----7----|----8----|----9----|---10----|
/GRNOD/NODE/21
New GRNOD 20 _nodes_subsubgroup_
   1000135   1000136   1000137   1000138   1000139   1000140   1000141   1000142   1000143   1000144
   1000145   1000147   1000148   1000149   1000150   1000151   1000152   1000153   1000154   1000155
   1000156   1000157   1000158   1000159   1000160   1000161
#---1----|----2----|----3----|----4----|----5----|----6----|----7----|----8----|----9----|---10----|
/GRNOD/GRNOD/22
New GRNOD 20 _nodes_subgroup_
        21
#---1----|----2----|----3----|----4----|----5----|----6----|----7----|----8----|----9----|---10----|
/GRNOD/NODE/23
ref_NODE_1000162
   1000162
#---1----|----2----|----3----|----4----|----5----|----6----|----7----|----8----|----9----|---10----|
/GRNOD/GRNOD/27
New GRNOD 27
        29
#---1----|----2----|----3----|----4----|----5----|----6----|----7----|----8----|----9----|---10----|
/GRNOD/NODE/28
New GRNOD 27 _nodes_subsubgroup_
   1000135   1000136   1000137   1000138   1000139   1000140   1000141   1000142   1000143   1000144
   1000145   1000147   1000148   1000149   1000150   1000151   1000152   1000153   1000154   1000155
   1000156   1000157   1000158   1000159   1000160   1000161
#---1----|----2----|----3----|----4----|----5----|----6----|----7----|----8----|----9----|---10----|
/GRNOD/GRNOD/29
New GRNOD 27 _nodes_subgroup_
        28
#---1----|----2----|----3----|----4----|----5----|----6----|----7----|----8----|----9----|---10----|
/GRNOD/GRNOD/33
New GRNOD 33
        35
#---1----|----2----|----3----|----4----|----5----|----6----|----7----|----8----|----9----|---10----|
/GRNOD/NODE/34
New GRNOD 33 _nodes_subsubgroup_
   1000135   1000136   1000137   1000138   1000139   1000140   1000141   1000142   1000143   1000144
   1000145   1000147   1000148   1000149   1000150   1000151   1000152   1000153   1000154   1000155
   1000156   1000157   1000158   1000159   1000160   1000161
#---1----|----2----|----3----|----4----|----5----|----6----|----7----|----8----|----9----|---10----|
/GRNOD/GRNOD/35
New GRNOD 33 _nodes_subgroup_
        34
#---1----|----2----|----3----|----4----|----5----|----6----|----7----|----8----|----9----|---10----|
/GRNOD/GRNOD/36
New GRNOD 36
        38
#---1----|----2----|----3----|----4----|----5----|----6----|----7----|----8----|----9----|---10----|
/GRNOD/NODE/37
New GRNOD 36 _nodes_subsubgroup_
   1000135   1000136   1000137   1000138   1000139   1000140   1000141   1000142   1000143   1000144
   1000145   1000147   1000148   1000149   1000150   1000151   1000152   1000153   1000154   1000155
   1000156   1000157   1000158   1000159   1000160   1000161
#---1----|----2----|----3----|----4----|----5----|----6----|----7----|----8----|----9----|---10----|
/GRNOD/GRNOD/38
New GRNOD 36 _nodes_subgroup_
        37
#---1----|----2----|----3----|----4----|----5----|----6----|----7----|----8----|----9----|---10----|
/GRNOD/GRNOD/42
New GRNOD 42
        43
#---1----|----2----|----3----|----4----|----5----|----6----|----7----|----8----|----9----|---10----|
/GRNOD/GRNOD/43
New GRNOD 42 _parts_subgroup_
        44
#---1----|----2----|----3----|----4----|----5----|----6----|----7----|----8----|----9----|---10----|
/GRNOD/PART/44
New GRNOD 42 _parts_subsubgroup_
         4
#---1----|----2----|----3----|----4----|----5----|----6----|----7----|----8----|----9----|---10----|
/GRNOD/GRNOD/45
New GRNOD 45
        47
#---1----|----2----|----3----|----4----|----5----|----6----|----7----|----8----|----9----|---10----|
/GRNOD/NODE/46
New GRNOD 45 _nodes_subsubgroup_
   1000135   1000136   1000137   1000138   1000139   1000140   1000141   1000142   1000143   1000144
   1000145   1000147   1000148   1000149   1000150   1000151   1000152   1000153   1000154   1000155
   1000156   1000157   1000158   1000159   1000160   1000161
#---1----|----2----|----3----|----4----|----5----|----6----|----7----|----8----|----9----|---10----|
/GRNOD/GRNOD/47
New GRNOD 45 _nodes_subgroup_
        46
#---1----|----2----|----3----|----4----|----5----|----6----|----7----|----8----|----9----|---10----|
/GRNOD/GRNOD/51
New GRNOD 51
        53
#---1----|----2----|----3----|----4----|----5----|----6----|----7----|----8----|----9----|---10----|
/GRNOD/NODE/52
New GRNOD 51 _nodes_subsubgroup_
   1000135   1000136   1000137   1000138   1000139   1000140   1000141   1000142   1000143   1000144
   1000145   1000147   1000148   1000149   1000150   1000151   1000152   1000153   1000154   1000155
   1000156   1000157   1000158   1000159   1000160   1000161
#---1----|----2----|----3----|----4----|----5----|----6----|----7----|----8----|----9----|---10----|
/GRNOD/GRNOD/53
New GRNOD 51 _nodes_subgroup_
        52
#---1----|----2----|----3----|----4----|----5----|----6----|----7----|----8----|----9----|---10----|
/GRNOD/NODE/60
ref_NODE_1000334
   1000334
#---1----|----2----|----3----|----4----|----5----|----6----|----7----|----8----|----9----|---10----|
#- 13. TIME HISTORIES:
#---1----|----2----|----3----|----4----|----5----|----6----|----7----|----8----|----9----|---10----|
/TH/PART/3
PARTS
#     var1      var2      var3      var4      var5      var6      var7      var8      var9     var10
DEF       
#     Obj1      Obj2      Obj3      Obj4      Obj5      Obj6      Obj7      Obj8      Obj9     Obj10
         2         1         4         5
#---1----|----2----|----3----|----4----|----5----|----6----|----7----|----8----|----9----|---10----|
/TH/INTER/4
interfaces
#     var1      var2      var3      var4      var5      var6      var7      var8      var9     var10
DEF       
#     Obj1      Obj2      Obj3      Obj4      Obj5      Obj6      Obj7      Obj8      Obj9     Obj10
         3         1         4
#---1----|----2----|----3----|----4----|----5----|----6----|----7----|----8----|----9----|---10----|
/END
#---1----|----2----|----3----|----4----|----5----|----6----|----7----|----8----|----9----|---10----|
