#RADIOSS STARTER
#--------------------------------------------------------------------------------------------------|
#- RADIOSS DECK / GENERATED BY HELIOSS 3.3.a5
#--------------------------------------------------------------------------------------------------|
/BEGIN
LAME_EQUERRE                                                                    
        51         0
#---1----|----2----|----3----|----4----|----5----|----6----|----7----|----8----|----9----|---10----|
/UNIT/LENGTH/1
/UNIT/MASS/1
/UNIT/TIME/1
#---1----|----2----|----3----|----4----|----5----|----6----|----7----|----8----|----9----|---10----|
#-  1. CONTROL CARDS:
#---1----|----2----|----3----|----4----|----5----|----6----|----7----|----8----|----9----|---10----|
/TITLE
lame equerre - implicit
/MEMORY
#   MEMORY                         REAL%
         0                             0
/SPMD
#   DOMDEC      SPMD              DECMOT
         0         2                   0
/IOFLAG
#     IPRI     IRTYP     IGTYP     IOUTP    IOUTYY   IROOTYY
         5         0         0         0         0         0
/ANALY
#    N2D3D     INTEG   IPARITH      ISUB
         0         0         0         0
/DEF_SOLID
#  B_HOURG   B_SSTRN                                                      Iframe
         0         0                                                           0
/DEF_SHELL
#  S_HOURG   S_SSTRN   S_THICK   S_PLAST    S_STRN    I_SH3N
         3         0         1         1         1         0
/RANDOM
#   Random-Noise
                   0
#---1----|----2----|----3----|----4----|----5----|----6----|----7----|----8----|----9----|---10----|
#---1----|----2----|----3----|----4----|----5----|----6----|----7----|----8----|----9----|---10----|
#-  2. MATERIALS:
#---1----|----2----|----3----|----4----|----5----|----6----|----7----|----8----|----9----|---10----|
/MAT/ELAST/1
E=71240MPa ; v=0.3
#        Init. dens.          Ref. dens.
               .0028                   0
#                  E                  nu
               71240                  .3
#---1----|----2----|----3----|----4----|----5----|----6----|----7----|----8----|----9----|---10----|
#-  3. NODES:
#---1----|----2----|----3----|----4----|----5----|----6----|----7----|----8----|----9----|---10----|
/NODE
      1003   -5.00000006000002                   0                  10
      1004          4.80769225                   0                  10
      1005          4.80769225                   0                  20
      1007   -5.00000006000002                   0                  20
      1008          4.80769225                   0                  30
      1011   -5.00000006000002                   0                  30
      1012   -5.00000006000002                   0                  40
      1015          4.80769225                   0                  40
      1017         14.61538456                   0                  20
      1019         14.61538456                   0                  10
      1020         14.61538456                   0                  30
      1022         14.61538456                   0                  40
      1024         24.42307687                   0                  10
      1025         24.42307687                   0                  30
      1028         24.42307687                   0                  40
      1029         24.42307687                   0                  20
      1034         34.23076918                   0                  40
      1035         34.23076918                   0                  20
      1037         34.23076918                   0                  30
      1039         34.23076918                   0                  10
# ... 181 like lines cut
#---1----|----2----|----3----|----4----|----5----|----6----|----7----|----8----|----9----|---10----|
#-  4. BOUNDARY CONDITIONS:
#---1----|----2----|----3----|----4----|----5----|----6----|----7----|----8----|----9----|---10----|
/BCS/1
111 111
#   trarot   Skew_id   Gnod_id
   111 111         0         2
/GRNOD/NODE/2
bcs
      1003      1007      1011      1012
#---1----|----2----|----3----|----4----|----5----|----6----|----7----|----8----|----9----|---10----|
#-  5. PARTS:
#---1----|----2----|----3----|----4----|----5----|----6----|----7----|----8----|----9----|---10----|
/PART/1
4-node shells - BATOZ
         1         1         1
#---1----|----2----|----3----|----4----|----5----|----6----|----7----|----8----|----9----|---10----|
# SHELL elements of /PART/1/4-node shells - BATOZ:
#---1----|----2----|----3----|----4----|----5----|----6----|----7----|----8----|----9----|---10----|
/SHELL/1
         1      1004      1005      1007      1003                                                 0
         2      1005      1008      1011      1007                                                 0
         3      1008      1015      1012      1011                                                 0
         4      1020      1022      1015      1008                                                 0
         5      1017      1020      1008      1005                                                 0
         6      1019      1017      1005      1004                                                 0
         7      1025      1028      1022      1020                                                 0
         8      1029      1025      1020      1017                                                 0
         9      1024      1029      1017      1019                                                 0
        10      1037      1034      1028      1025                                                 0
        11      1035      1037      1025      1029                                                 0
        12      1039      1035      1029      1024                                                 0
        13      1043      1045      1035      1039                                                 0
        14      1045      1041      1037      1035                                                 0
        15      1041      1047      1034      1037                                                 0
        16      1048      1051      1041      1045                                                 0
        17      1049      1048      1045      1043                                                 0
        18      1056      1061      1053      1051                                                 0
        19      1051      1053      1047      1041                                                 0
        20      1057      1058      1048      1049                                                 0
# ... 127 like lines cut
#---1----|----2----|----3----|----4----|----5----|----6----|----7----|----8----|----9----|---10----|
#-  6. SUBSETS:
#---1----|----2----|----3----|----4----|----5----|----6----|----7----|----8----|----9----|---10----|
/SUBSET/1
mesh
#---1----|----2----|----3----|----4----|----5----|----6----|----7----|----8----|----9----|---10----|
#-  7. GEOMETRICAL SETS:
#---1----|----2----|----3----|----4----|----5----|----6----|----7----|----8----|----9----|---10----|
/PROP/SHELL/1
t=0.6mm
#   Ishell    Ismstr
        12         0
#                 hm                  hf                  hr                  dm                  dn
                   0                   0                   0                   0                   0
#        N   Istrain               Thick              Ashear              Ithick     Iplas
         5         0                  .6                   0                   0         0
#---1----|----2----|----3----|----4----|----5----|----6----|----7----|----8----|----9----|---10----|
#-  8. FUNCTIONS:
#---1----|----2----|----3----|----4----|----5----|----6----|----7----|----8----|----9----|---10----|
/FUNCT/1
concentrated load
#                  X                   Y
                   0                   1                                                            
                   1                   1                                                            
#---1----|----2----|----3----|----4----|----5----|----6----|----7----|----8----|----9----|---10----|
#-  9. CONCENTRATED LOADS:
#---1----|----2----|----3----|----4----|----5----|----6----|----7----|----8----|----9----|---10----|
/CLOAD/1
Px
#   Ifunct       DIR     Iskew   Isensor   Gnod_id                       Scale_x             Scale_y
         1         X         0         0         7                             1                   1
/GRNOD/NODE/7
cload Px
      1292
#---1----|----2----|----3----|----4----|----5----|----6----|----7----|----8----|----9----|---10----|
#/CLOAD/2
#perturbation: Ps = 0.001Px
#   Ifunct       DIR     Iskew   Isensor   Gnod_id                       Scale_x             Scale_y
#         1         Y         0         0         9                             1               -.001
#/GRNOD/NODE/9
#cload Ps
#      1292
#---1----|----2----|----3----|----4----|----5----|----6----|----7----|----8----|----9----|---10----|
#- 10. RIGID BODIES:
#---1----|----2----|----3----|----4----|----5----|----6----|----7----|----8----|----9----|---10----|
/RBODY/1
extremity
#     RBID     ISENS     NSKEW    ISPHER                MASS   Gnod_id     IKREM      ICOG   Surf_id
      1292         0         0         1                   0         4         0         0         0
#                Jxx                 Jyy                 Jzz
                   0                   0                   0
#                Jxy                 Jyz                 Jxz
                   0                   0                   0
/GRNOD/NODE/4
rb
      1242      1244      1265      1291
#---1----|----2----|----3----|----4----|----5----|----6----|----7----|----8----|----9----|---10----|
#- 11. NODE GROUPS:
#---1----|----2----|----3----|----4----|----5----|----6----|----7----|----8----|----9----|---10----|
/GRNOD/NODE/5
ref_NODE_1292
      1292
#---1----|----2----|----3----|----4----|----5----|----6----|----7----|----8----|----9----|---10----|
#- 12. TIME HISTORIES:
#---1----|----2----|----3----|----4----|----5----|----6----|----7----|----8----|----9----|---10----|
/TH/NODE/1
master node RB
#     var1      var2      var3      var4      var5      var6      var7      var8      var9     var10
DEF       
#    NODid     Iskew                                           NODname
      1292         0                                                                                
#---1----|----2----|----3----|----4----|----5----|----6----|----7----|----8----|----9----|---10----|
/END
#---1----|----2----|----3----|----4----|----5----|----6----|----7----|----8----|----9----|---10----|
